@<TRIPOS>MOLECULE
AZI
   98   100     4     0     1 
SMALL
USER_CHARGES
@<TRIPOS>ATOM
  1 N2     -0.034676    0.747263    3.175449 n1    1 AZI    -0.3273 ****
  2 N1     -0.268343    0.820547    2.100080 n1    1 AZI     0.6410 ****
  3 N      -0.589434    0.982800    0.926692 n2    1 AZI    -0.5856 ****
  4 C       0.000000    0.000000    0.000000 c3    1 AZI     0.2486 ****
  5 H5     -0.384205   -0.995067    0.213904 h1    1 AZI     0.0000 ****
  6 H6     -0.364157    0.291898   -0.969849 h1    1 AZI     0.0000 ****
  7 C1      1.530600    0.000000    0.000000 c3    1 AZI     0.0080 ****
  8 H       1.870864    1.030791    0.000000 hc    1 AZI     0.0000 ****
  9 H1      1.918779   -0.474682    0.897410 hc    1 AZI     0.0000 ****
 10 C2      2.117675   -0.693370   -1.220843 c3    1 AZI     0.2251 ****
 11 H2      3.200618   -0.614430   -1.185257 h1    1 AZI     0.0000 ****
 12 H3      1.866972   -1.754014   -1.212774 h1    1 AZI     0.0000 ****
 13 O       1.606621   -0.081502   -2.375820 os    1 AZI    -0.4038 ****
 14 C1      2.131467   -0.700923   -3.589267 Cg    2 4GB     0.3840 ****
 15 H1      1.859888   -1.757230   -3.616487 H2    2 4GB     0.0000 ****
 16 O5      3.592625   -0.609023   -3.664950 Os    2 4GB    -0.4710 ****
 17 C5      4.205252   -1.179003   -4.903835 Cg    2 4GB     0.2250 ****
 18 H5      3.950472   -2.239600   -4.955655 H1    2 4GB     0.0000 ****
 19 C6      5.738255   -1.045237   -4.822048 Cg    2 4GB     0.2820 ****
 20 H62     6.023357    0.007207   -4.785201 H1    2 4GB     0.0000 ****
 21 H61     6.209979   -1.498328   -5.693992 H1    2 4GB     0.0000 ****
 22 O6      6.222911   -1.702629   -3.636070 Oh    2 4GB    -0.6880 ****
 23 H6O     5.736581   -1.358756   -2.880637 Ho    2 4GB     0.4240 ****
 24 C4      3.693503   -0.481778   -6.086366 Cg    2 4GB     0.2760 ****
 25 H4      4.038473    0.554226   -6.073897 H1    2 4GB     0.0000 ****
 26 C3      2.146226   -0.507469   -6.126096 Cg    2 4GB     0.2840 ****
 27 H3      1.809822   -1.533929   -6.286335 H1    2 4GB     0.0000 ****
 28 O3      1.692157    0.306669   -7.241943 Oh    2 4GB    -0.7090 ****
 29 H3O     0.726725    0.342187   -7.199890 Ho    2 4GB     0.4320 ****
 30 C2      1.521887    0.028350   -4.818379 Cg    2 4GB     0.3100 ****
 31 H2      1.717942    1.099382   -4.735209 H1    2 4GB     0.0000 ****
 32 O2      0.079740   -0.181863   -4.860669 Oh    2 4GB    -0.7180 ****
 33 H2O    -0.287915    0.093102   -4.010739 Ho    2 4GB     0.4370 ****
 34 O4      4.208891   -1.129951   -7.274201 Os    2 4GB    -0.4680 ****
 35 C1      3.732930   -0.478821   -8.491201 Cg    3 3LB     0.3740 ****
 36 H1      4.054549    0.563578   -8.506923 H2    3 3LB     0.0000 ****
 37 O5      2.267427   -0.500944   -8.590066 Os    3 3LB    -0.4020 ****
 38 C5      1.688102    0.028673   -9.862431 Cg    3 3LB     0.1400 ****
 39 H5      1.971561    1.079529   -9.950849 H1    3 3LB     0.0000 ****
 40 C6      0.151944   -0.045703   -9.805811 Cg    3 3LB     0.3190 ****
 41 H62    -0.180876   -1.069014   -9.625956 H1    3 3LB     0.0000 ****
 42 H61    -0.278890    0.298268  -10.746112 H1    3 3LB     0.0000 ****
 43 O6     -0.318989    0.797203   -8.741527 Oh    3 3LB    -0.6930 ****
 44 H6O     0.084685    0.492586   -7.924350 Ho    3 3LB     0.4190 ****
 45 C4      2.176887   -0.681683  -11.009969 Cg    3 3LB     0.2030 ****
 46 H4      1.803121   -0.205358  -11.917546 H1    3 3LB     0.0000 ****
 47 O4      1.697987   -2.048919  -10.979630 Oh    3 3LB    -0.6640 ****
 48 H4O     2.137018   -2.521024  -11.700364 Ho    3 3LB     0.4370 ****
 49 C3      3.722745   -0.672920  -11.028993 Cg    3 3LB     0.2590 ****
 50 H3      4.054586    0.359680  -11.155813 H1    3 3LB     0.0000 ****
 51 C2      4.327951   -1.230400   -9.718974 Cg    3 3LB     0.3570 ****
 52 H2      4.109341   -2.297141   -9.636895 H1    3 3LB     0.0000 ****
 53 O2      5.775080   -1.048745   -9.757681 Oh    3 3LB    -0.7260 ****
 54 H2O     6.130205   -1.337222   -8.908038 Ho    3 3LB     0.4320 ****
 55 O3      4.189675   -1.432747  -12.178630 Os    3 3LB    -0.4550 ****
 56 C2      5.597800   -1.458525  -12.246603 Cy    4 9SN     0.1556 ****
 57 C1      6.243029    0.041552  -12.375020 C     4 9SN     0.8259 ****
 58 O1A     6.503258    0.629876  -11.290457 O2    4 9SN    -0.7750 ****
 59 O1B     6.511752    0.496144  -13.512407 O2    4 9SN    -0.7750 ****
 60 C3      6.015375   -2.282995  -13.492189 Cg    4 9SN     0.0707 ****
 61 H3E     5.808526   -1.719658  -14.385296 Hc    4 9SN     0.0000 ****
 62 H3A     5.446324   -3.209096  -13.501437 Hc    4 9SN     0.0000 ****
 63 C4      7.514795   -2.626792  -13.446749 Cg    4 9SN     0.2603 ****
 64 H4      8.063437   -1.706291  -13.629066 H1    4 9SN     0.0000 ****
 65 O4      7.736364   -3.512363  -14.533133 Oh    4 9SN    -0.7496 ****
 66 H4O     8.671419   -3.631809  -14.633677 Ho    4 9SN     0.4087 ****
 67 C5      7.985686   -3.218264  -12.189368 Cg    4 9SN     0.3944 ****
 68 H5      7.473976   -4.145886  -11.989984 H1    4 9SN     0.0000 ****
 69 N5      9.417146   -3.468256  -12.239789 Ng    4 9SN    -0.5925 ****
 70 H5N    10.014833   -2.686859  -12.419203 H     4 9SN     0.2668 ****
 71 C5N    10.097683   -4.618575  -12.005085 C     4 9SN     0.6256 ****
 72 CME    11.604666   -4.581465  -12.134682 Cg    4 9SN     0.0039 ****
 73 H3M    12.035950   -3.883084  -11.426647 Hc    4 9SN     0.0000 ****
 74 H2M    11.897964   -4.275904  -13.132512 Hc    4 9SN     0.0000 ****
 75 H1M    11.977233   -5.575440  -11.930308 Hc    4 9SN     0.0000 ****
 76 O5N     9.515288   -5.630155  -11.705843 O     4 9SN    -0.6112 ****
 77 C6      7.616327   -2.183782  -11.104307 Cg    4 9SN     0.2105 ****
 78 H6      8.069956   -1.237147  -11.353997 H1    4 9SN     0.0000 ****
 79 C7      7.992290   -2.538043   -9.674779 C7    4 9SN     0.1367 ****
 80 H7      9.062487   -2.693346   -9.616059 H1    4 9SN     0.0000 ****
 81 O7      7.391134   -3.753584   -9.288553 Oh    4 9SN    -0.6952 ****
 82 H7O     6.470297   -3.689703   -9.517420 Ho    4 9SN     0.4186 ****
 83 C8      7.589922   -1.413010   -8.707945 C8    4 9SN     0.3724 ****
 84 H8      6.506711   -1.409472   -8.630250 H1    4 9SN     0.0000 ****
 85 O8      8.047802   -0.168188   -9.143354 Oh    4 9SN    -0.6925 ****
 86 H8O     7.483937    0.161254   -9.857881 Ho    4 9SN     0.4024 ****
 87 C9      8.173996   -1.643863   -7.319370 C9    4 9SN     0.2507 ****
 88 N9      7.827175   -0.519310   -6.475689 Nh    4 9SN    -0.6411 ****
 89 H9N     7.804971    0.362412   -6.936231 H     4 9SN     0.2838 ****
 90 C9N     7.707247   -0.585355   -5.142701 C     4 9SN     0.6623 ****
 91 O9N     7.819657   -1.603376   -4.504073 O     4 9SN    -0.6133 ****
 92 C9M     7.415261    0.731762   -4.446805 Cg    4 9SN    -0.0030 ****
 93 H91     6.579084    0.588414   -3.773642 Hc    4 9SN     0.0000 ****
 94 H92     7.191174    1.542023   -5.131143 Hc    4 9SN     0.0000 ****
 95 H93     8.277824    1.005066   -3.848045 Hc    4 9SN     0.0000 ****
 96 H9S     7.784298   -2.549156   -6.880255 H1    4 9SN     0.0000 ****
 97 H9R     9.254397   -1.739705   -7.390906 H1    4 9SN     0.0000 ****
 98 O6      6.181019   -2.057872  -11.081542 Oy    4 9SN    -0.4066 ****
@<TRIPOS>BOND
    1    13    14 1
    2    10    11 1
    3    10    12 1
    4    10    13 1
    5     7     8 1
    6     7     9 1
    7     7    10 1
    8     4     5 1
    9     4     6 1
   10     4     7 1
   11     3     4 1
   12     2     3 1
   13     1     2 1
   14    34    35 1
   15    32    33 1
   16    30    31 1
   17    30    32 1
   18    28    29 1
   19    26    27 1
   20    26    28 1
   21    26    30 1
   22    24    25 1
   23    24    26 1
   24    24    34 1
   25    22    23 1
   26    19    20 1
   27    19    21 1
   28    19    22 1
   29    17    18 1
   30    17    19 1
   31    17    24 1
   32    16    17 1
   33    14    15 1
   34    14    16 1
   35    14    30 1
   36    55    56 1
   37    53    54 1
   38    51    52 1
   39    51    53 1
   40    49    50 1
   41    49    51 1
   42    49    55 1
   43    47    48 1
   44    45    46 1
   45    45    47 1
   46    45    49 1
   47    43    44 1
   48    40    41 1
   49    40    42 1
   50    40    43 1
   51    38    39 1
   52    38    40 1
   53    38    45 1
   54    37    38 1
   55    35    36 1
   56    35    37 1
   57    35    51 1
   58    92    93 1
   59    92    94 1
   60    92    95 1
   61    90    91 1
   62    90    92 1
   63    88    89 1
   64    88    90 1
   65    87    88 1
   66    87    96 1
   67    87    97 1
   68    85    86 1
   69    83    84 1
   70    83    85 1
   71    83    87 1
   72    81    82 1
   73    79    80 1
   74    79    81 1
   75    79    83 1
   76    77    78 1
   77    77    79 1
   78    77    98 1
   79    72    73 1
   80    72    74 1
   81    72    75 1
   82    71    72 1
   83    71    76 1
   84    69    70 1
   85    69    71 1
   86    67    68 1
   87    67    69 1
   88    67    77 1
   89    65    66 1
   90    63    64 1
   91    63    65 1
   92    63    67 1
   93    60    61 1
   94    60    62 1
   95    60    63 1
   96    57    58 1
   97    57    59 1
   98    56    57 1
   99    56    60 1
  100    56    98 1
@<TRIPOS>SUBSTRUCTURE
      1  AZI              1 ****               0 ****  **** 
      2  4GB             14 ****               0 ****  **** 
      3  3LB             35 ****               0 ****  **** 
      4  9SN             56 ****               0 ****  **** 
