@<TRIPOS>MOLECULE
AZI
   92    94     4     0     1 
SMALL
USER_CHARGES
@<TRIPOS>ATOM
  1 N2     -0.034676    0.747263    3.175449 n1    1 AZI    -0.3273 ****
  2 N1     -0.268343    0.820547    2.100080 n1    1 AZI     0.6410 ****
  3 N      -0.589434    0.982800    0.926692 n2    1 AZI    -0.5856 ****
  4 C       0.000000    0.000000    0.000000 c3    1 AZI     0.2486 ****
  5 H5     -0.384205   -0.995067    0.213904 h1    1 AZI     0.0000 ****
  6 H6     -0.364157    0.291898   -0.969849 h1    1 AZI     0.0000 ****
  7 C1      1.530600    0.000000    0.000000 c3    1 AZI     0.0080 ****
  8 H       1.870864    1.030791    0.000000 hc    1 AZI     0.0000 ****
  9 H1      1.918779   -0.474682    0.897410 hc    1 AZI     0.0000 ****
 10 C2      2.117675   -0.693370   -1.220843 c3    1 AZI     0.2251 ****
 11 H2      3.200618   -0.614430   -1.185257 h1    1 AZI     0.0000 ****
 12 H3      1.866972   -1.754014   -1.212774 h1    1 AZI     0.0000 ****
 13 O       1.606621   -0.081502   -2.375820 os    1 AZI    -0.4038 ****
 14 C1      2.131467   -0.700923   -3.589267 Cg    2 4GB     0.3840 ****
 15 H1      1.859888   -1.757230   -3.616487 H2    2 4GB     0.0000 ****
 16 O5      3.592625   -0.609023   -3.664950 Os    2 4GB    -0.4710 ****
 17 C5      4.205252   -1.179003   -4.903835 Cg    2 4GB     0.2250 ****
 18 H5      3.950472   -2.239600   -4.955655 H1    2 4GB     0.0000 ****
 19 C6      5.738255   -1.045237   -4.822048 Cg    2 4GB     0.2820 ****
 20 H62     6.023357    0.007207   -4.785201 H1    2 4GB     0.0000 ****
 21 H61     6.209979   -1.498328   -5.693992 H1    2 4GB     0.0000 ****
 22 O6      6.222911   -1.702629   -3.636070 Oh    2 4GB    -0.6880 ****
 23 H6O     5.736581   -1.358756   -2.880637 Ho    2 4GB     0.4240 ****
 24 C4      3.693503   -0.481778   -6.086366 Cg    2 4GB     0.2760 ****
 25 H4      4.038473    0.554226   -6.073897 H1    2 4GB     0.0000 ****
 26 C3      2.146226   -0.507469   -6.126096 Cg    2 4GB     0.2840 ****
 27 H3      1.809822   -1.533929   -6.286335 H1    2 4GB     0.0000 ****
 28 O3      1.692157    0.306669   -7.241943 Oh    2 4GB    -0.7090 ****
 29 H3O     0.726725    0.342187   -7.199890 Ho    2 4GB     0.4320 ****
 30 C2      1.521887    0.028350   -4.818379 Cg    2 4GB     0.3100 ****
 31 H2      1.717942    1.099382   -4.735209 H1    2 4GB     0.0000 ****
 32 O2      0.079740   -0.181863   -4.860669 Oh    2 4GB    -0.7180 ****
 33 H2O    -0.287915    0.093102   -4.010739 Ho    2 4GB     0.4370 ****
 34 O4      4.208891   -1.129951   -7.274201 Os    2 4GB    -0.4680 ****
 35 C1      3.732930   -0.478821   -8.491201 Cg    3 3LB     0.3740 ****
 36 H1      4.054549    0.563578   -8.506923 H2    3 3LB     0.0000 ****
 37 O5      2.267427   -0.500944   -8.590066 Os    3 3LB    -0.4020 ****
 38 C5      1.688102    0.028673   -9.862431 Cg    3 3LB     0.1400 ****
 39 H5      1.971561    1.079529   -9.950849 H1    3 3LB     0.0000 ****
 40 C6      0.151944   -0.045703   -9.805811 Cg    3 3LB     0.3190 ****
 41 H62    -0.180876   -1.069014   -9.625956 H1    3 3LB     0.0000 ****
 42 H61    -0.278890    0.298268  -10.746112 H1    3 3LB     0.0000 ****
 43 O6     -0.318989    0.797203   -8.741527 Oh    3 3LB    -0.6930 ****
 44 H6O     0.084685    0.492586   -7.924350 Ho    3 3LB     0.4190 ****
 45 C4      2.176887   -0.681683  -11.009969 Cg    3 3LB     0.2030 ****
 46 H4      1.803121   -0.205358  -11.917546 H1    3 3LB     0.0000 ****
 47 O4      1.697987   -2.048919  -10.979630 Oh    3 3LB    -0.6640 ****
 48 H4O     2.137018   -2.521024  -11.700364 Ho    3 3LB     0.4370 ****
 49 C3      3.722745   -0.672920  -11.028993 Cg    3 3LB     0.2590 ****
 50 H3      4.054586    0.359680  -11.155813 H1    3 3LB     0.0000 ****
 51 C2      4.327951   -1.230400   -9.718974 Cg    3 3LB     0.3570 ****
 52 H2      4.109341   -2.297141   -9.636895 H1    3 3LB     0.0000 ****
 53 O2      5.775080   -1.048745   -9.757681 Oh    3 3LB    -0.7260 ****
 54 H2O     6.130205   -1.337222   -8.908038 Ho    3 3LB     0.4320 ****
 55 O3      4.189675   -1.432747  -12.178630 Os    3 3LB    -0.4550 ****
 56 C2      5.597800   -1.458525  -12.246603 Cy    4 0SA     0.2370 ****
 57 C1      6.243029    0.041552  -12.375020 C     4 0SA     0.7890 ****
 58 O1A     6.502470    0.631369  -11.291079 O2    4 0SA    -0.7610 ****
 59 O1B     6.560574    0.475251  -13.509081 O2    4 0SA    -0.7610 ****
 60 C3      6.015106   -2.282463  -13.491385 Cg    4 0SA     0.0060 ****
 61 H3E     5.776100   -1.742677  -14.410065 Hc    4 0SA     0.0000 ****
 62 H3A     5.439124   -3.211313  -13.539531 Hc    4 0SA     0.0000 ****
 63 C4      7.514572   -2.626081  -13.446111 Cg    4 0SA     0.3320 ****
 64 H4      8.082395   -1.710581  -13.618498 H1    4 0SA     0.0000 ****
 65 C5      7.984095   -3.219715  -12.191987 Cg    4 0SA     0.3080 ****
 66 H5      7.548819   -4.182752  -11.917107 H1    4 0SA     0.0000 ****
 67 C6      7.616007   -2.185689  -11.106060 Cg    4 0SA     0.2200 ****
 68 H6      8.055431   -1.241701  -11.428385 H1    4 0SA     0.0000 ****
 69 C7      8.140488   -2.393206   -9.669848 C7    4 0SA     0.1110 ****
 70 H7      9.225924   -2.285490   -9.692375 H1    4 0SA     0.0000 ****
 71 C8      7.577454   -1.333184   -8.679656 C8    4 0SA     0.4920 ****
 72 H8      6.492191   -1.423532   -8.613917 H1    4 0SA     0.0000 ****
 73 C9      8.181190   -1.473991   -7.256849 C9    4 0SA     0.1780 ****
 74 H9S     8.010543   -2.480202   -6.874070 H1    4 0SA     0.0000 ****
 75 H9R     9.259043   -1.308916   -7.292410 H1    4 0SA     0.0000 ****
 76 O9      7.594729   -0.527708   -6.329372 Oh    4 0SA    -0.6890 ****
 77 H9O     7.626004    0.338965   -6.752603 Ho    4 0SA     0.4080 ****
 78 O8      7.911724    0.001309   -9.168525 Oh    4 0SA    -0.7390 ****
 79 H8O     7.361701    0.224326   -9.952124 Ho    4 0SA     0.4120 ****
 80 O7      7.853121   -3.752095   -9.219912 Oh    4 0SA    -0.7210 ****
 81 H7O     8.388494   -4.391850   -9.728458 Ho    4 0SA     0.4350 ****
 82 O6      6.180903   -2.057753  -11.081775 Oy    4 0SA    -0.4030 ****
 83 N5      9.456749   -3.367392  -12.300326 Ng    4 0SA    -0.6290 ****
 84 H5N     9.969105   -2.613256  -12.727900 H     4 0SA     0.2800 ****
 85 C5N    10.140774   -4.378037  -11.754180 C     4 0SA     0.6320 ****
 86 CME    11.667223   -4.362532  -11.964884 Cg    4 0SA    -0.0030 ****
 87 H3M    11.925305   -3.878941  -12.909340 Hc    4 0SA     0.0000 ****
 88 H2M    12.048577   -5.384570  -11.981898 Hc    4 0SA     0.0000 ****
 89 H1M    12.139730   -3.821032  -11.144034 Hc    4 0SA     0.0000 ****
 90 O5N     9.591034   -5.263289  -11.104489 O     4 0SA    -0.5930 ****
 91 O4      7.624778   -3.586583  -14.528096 Oh    4 0SA    -0.7620 ****
 92 H4O     8.538309   -3.866333  -14.611053 Ho    4 0SA     0.4150 ****
@<TRIPOS>BOND
    1    13    14 1
    2    10    11 1
    3    10    12 1
    4    10    13 1
    5     7     8 1
    6     7     9 1
    7     7    10 1
    8     4     5 1
    9     4     6 1
   10     4     7 1
   11     3     4 1
   12     2     3 1
   13     1     2 1
   14    34    35 1
   15    32    33 1
   16    30    31 1
   17    30    32 1
   18    28    29 1
   19    26    27 1
   20    26    28 1
   21    26    30 1
   22    24    25 1
   23    24    26 1
   24    24    34 1
   25    22    23 1
   26    19    20 1
   27    19    21 1
   28    19    22 1
   29    17    18 1
   30    17    19 1
   31    17    24 1
   32    16    17 1
   33    14    15 1
   34    14    16 1
   35    14    30 1
   36    55    56 1
   37    53    54 1
   38    51    52 1
   39    51    53 1
   40    49    50 1
   41    49    51 1
   42    49    55 1
   43    47    48 1
   44    45    46 1
   45    45    47 1
   46    45    49 1
   47    43    44 1
   48    40    41 1
   49    40    42 1
   50    40    43 1
   51    38    39 1
   52    38    40 1
   53    38    45 1
   54    37    38 1
   55    35    36 1
   56    35    37 1
   57    35    51 1
   58    91    92 1
   59    86    87 1
   60    86    88 1
   61    86    89 1
   62    85    86 1
   63    85    90 1
   64    83    84 1
   65    83    85 1
   66    80    81 1
   67    78    79 1
   68    76    77 1
   69    73    74 1
   70    73    75 1
   71    73    76 1
   72    71    72 1
   73    71    73 1
   74    71    78 1
   75    69    70 1
   76    69    71 1
   77    69    80 1
   78    67    68 1
   79    67    69 1
   80    67    82 1
   81    65    66 1
   82    65    67 1
   83    65    83 1
   84    63    64 1
   85    63    65 1
   86    63    91 1
   87    60    61 1
   88    60    62 1
   89    60    63 1
   90    57    58 1
   91    57    59 1
   92    56    57 1
   93    56    60 1
   94    56    82 1
@<TRIPOS>SUBSTRUCTURE
      1  AZI              1 ****               0 ****  **** 
      2  4GB             14 ****               0 ****  **** 
      3  3LB             35 ****               0 ****  **** 
      4  0SA             56 ****               0 ****  **** 
